10
Carbon Lattice
 C    0.000000    0.000000    0.000000
 C    0.000000    0.000000    4.500000
 C    0.000000    4.980000    0.000000
 C    0.000000    4.980000    4.500000
 C    7.420000    0.000000    0.000000
 C    7.420000    0.000000    4.500000
 C    7.420000    4.980000    0.000000
 C    7.420000    4.980000    4.500000
 C    3.710000    0.000000    2.250000
 C    3.710000    4.980000    2.250000
